* 12AT7 high-mu twin triode (one section) — Circuit Codex tube model
* License: CC0 1.0 Universal (public domain dedication)
*   https://creativecommons.org/publicdomain/zero/1.0/
* Equations: Koren model form — N. Koren, 'Improved vacuum-tube models for
*   SPICE simulations', Glass Audio 8(5), 1996 (published methodology; all
*   parameters fitted by Circuit Codex, none copied from other collections).
* Anchor (RCA 12AT7 data sheet, March 1, 1954, tabulated characteristics): Va=250 V, Vg=-2.0 V (200 ohm cathode bias) -> Ia=10 mA, gm=5500 umho, mu=60
* Method + limitations: models/METHODOLOGY.md
* Generated by pipeline/fit_models.py — edit anchors there, not here.
* Heater not modeled (rated heater assumed). No grid-current model (v0).
* Second tabulated point Va=100 V/270 ohm -> 3.7 mA, 4000 umho (mu=60).
* Node order: P G K. Basing 9A (reference/tubes/12at7.yaml).
.subckt 12AT7 P G K
* fitted: MU=60 EX=1.5 KG1=359.443 KP=211.35 KVB=300
Bp P K I=pow(uramp((V(P,K)/211.35)*ln(1+exp(211.35*(1/60+V(G,K)/sqrt(300+V(P,K)*V(P,K)))))),1.5)/359.443
Cgk G K 2.2p
Cgp G P 1.5p
Cpk P K 0.5p
.ends 12AT7
