* 12AX7 dual triode (one section) — Circuit Codex tube model
* License: CC0 1.0 Universal (public domain dedication)
*   https://creativecommons.org/publicdomain/zero/1.0/
* Equations: Koren model form — N. Koren, 'Improved vacuum-tube models for
*   SPICE simulations', Glass Audio 8(5), 1996 (published methodology; all
*   parameters fitted by Circuit Codex, none copied from other collections).
* Anchor (RCA Receiving Tube Manual RC-19, 1959, average characteristics): Va=250 V/-2 V -> 1.2 mA, 1600 umho AND Va=100 V/-1 V -> 0.5 mA (mu=100); v1 two-point fit, see reference/studies/12ax7-calibration.md
* Method + limitations: models/METHODOLOGY.md
* Generated by pipeline/fit_models.py — edit anchors there, not here.
* Heater not modeled (rated heater assumed). No grid-current model (v0).
.subckt 12AX7 P G K
* fitted: MU=100 EX=1.5 KG1=657.962 KP=679.774 KVB=25690.8
Bp P K I=pow(uramp((V(P,K)/679.774)*ln(1+exp(679.774*(1/100+V(G,K)/sqrt(25690.8+V(P,K)*V(P,K)))))),1.5)/657.962
Cgk G K 1.6p
Cgp G P 1.7p
Cpk P K 0.46p
.ends 12AX7
