* 12AX7 dual triode (one section) — Circuit Codex tube model
* License: CC0 1.0 Universal (public domain dedication)
*   https://creativecommons.org/publicdomain/zero/1.0/
* Equations: Koren model form — N. Koren, 'Improved vacuum-tube models for
*   SPICE simulations', Glass Audio 8(5), 1996 (published methodology; all
*   parameters fitted by Circuit Codex, none copied from other collections).
* Anchor (RCA Receiving Tube Manual RC-19, 1959, average characteristics): Va=250 V, Vg=-2 V -> Ia=1.2 mA, gm=1600 umho, mu=100
* Method + limitations: models/METHODOLOGY.md
* Generated by pipeline/fit_models.py — edit anchors there, not here.
* Heater not modeled (rated heater assumed). No grid-current model (v0).
.subckt 12AX7 P G K
* fitted: MU=100 EX=1.5 KG1=555.546 KP=373.241 KVB=300
Bp P K I=pow(uramp((V(P,K)/373.241)*ln(1+exp(373.241*(1/100+V(G,K)/sqrt(300+V(P,K)*V(P,K)))))),1.5)/555.546
Cgk G K 1.6p
Cgp G P 1.7p
Cpk P K 0.46p
.ends 12AX7
