* 12AY7 dual triode (one section) — Circuit Codex tube model
* License: CC0 1.0 Universal (public domain dedication)
*   https://creativecommons.org/publicdomain/zero/1.0/
* Equations: Koren model form — N. Koren, 'Improved vacuum-tube models for
*   SPICE simulations', Glass Audio 8(5), 1996 (published methodology; all
*   parameters fitted by Circuit Codex, none copied from other collections).
* Anchor (RCA Receiving Tube Manual RC-19, 1959, average characteristics): Va=250 V, Vg=-4 V -> Ia=3.0 mA, gm=1750 umho, mu=44
* Method + limitations: models/METHODOLOGY.md
* Generated by pipeline/fit_models.py — edit anchors there, not here.
* Heater not modeled (rated heater assumed). No grid-current model (v0).
.subckt 12AY7 P G K
* fitted: MU=44 EX=1.5 KG1=950.56 KP=190.465 KVB=300
Bp P K I=pow(uramp((V(P,K)/190.465)*ln(1+exp(190.465*(1/44+V(G,K)/sqrt(300+V(P,K)*V(P,K)))))),1.5)/950.56
Cgk G K 1.3p
Cgp G P 1.3p
Cpk P K 0.6p
.ends 12AY7
