* 5881 beam power tube (6L6GC-family anchor data) — Circuit Codex tube model
* License: CC0 1.0 Universal (public domain dedication)
*   https://creativecommons.org/publicdomain/zero/1.0/
* Equations: Koren model form — N. Koren, 'Improved vacuum-tube models for
*   SPICE simulations', Glass Audio 8(5), 1996 (published methodology; all
*   parameters fitted by Circuit Codex, none copied from other collections).
* Anchor (RCA Receiving Tube Manual RC-19, 1959, average characteristics): Va=250 V, Vg2=250 V, Vg1=-14 V -> Ia=72 mA, Ig2=5 mA, gm=6000 umho
* Method + limitations: models/METHODOLOGY.md
* Generated by pipeline/fit_models.py — edit anchors there, not here.
* Heater not modeled (rated heater assumed). No grid-current model (v0).
* Anchored on RC-19 6L6-GC average characteristics; 5881/6L6WGB
* is treated as 6L6GC-class at these ratings (see METHODOLOGY).
* mu is grid-No.1-to-grid-No.2 amplification factor (8, RC-19).
* Node order: P G2 G1 K
.subckt 5881 P G2 G1 K
* fitted: MU=8 EX=1.5 KG1=1465.24 KG2=14328.9 KP=49.2357 KVB=30
Bp P K I=pow(uramp((V(G2,K)/49.2357)*ln(1+exp(49.2357*(1/8+V(G1,K)/V(G2,K))))),1.5)/1465.24*atan(V(P,K)/30)
Bg2 G2 K I=pow(uramp(V(G2,K)/8+V(G1,K)),1.5)/14328.9
Cg1k G1 K 10p
Cg1p G1 P 0.6p
Cpk P K 12p
.ends 5881
