* 5U4G full-wave rectifier (ONE plate unit — instantiate twice) — Circuit Codex tube model
* License: CC0 1.0 Universal (public domain dedication)
*   https://creativecommons.org/publicdomain/zero/1.0/
* Equations: Koren model form — N. Koren, 'Improved vacuum-tube models for
*   SPICE simulations', Glass Audio 8(5), 1996 (published methodology; all
*   parameters fitted by Circuit Codex, none copied from other collections).
* Anchor (RCA Receiving Tube Manual RC-19, 1959, average characteristics): tube voltage drop ~50 V at Ia=200 mA per plate
* Method + limitations: models/METHODOLOGY.md
* Generated by pipeline/fit_models.py — edit anchors there, not here.
* Heater not modeled (rated heater assumed). No grid-current model (v0).
* Child's-law diode: I = PERV * V^1.5; PERV fitted to the drop anchor.
* Directly-heated high-current twin-plate rectifier (5U4G/5U4GB class).
* Node order: A K (anode, cathode/filament)
.subckt 5U4G A K
* fitted: PERV=0.000565685 EX=1.5
Bd A K I=pow(uramp(V(A,K)),1.5)*0.000565685
Cak A K 4p
.ends 5U4G
