* 6AT6 twin-diode / high-mu triode (triode unit only) — Circuit Codex tube model
* License: CC0 1.0 Universal (public domain dedication)
*   https://creativecommons.org/publicdomain/zero/1.0/
* Equations: Koren model form — N. Koren, 'Improved vacuum-tube models for
*   SPICE simulations', Glass Audio 8(5), 1996 (published methodology; all
*   parameters fitted by Circuit Codex, none copied from other collections).
* Anchor (RCA Receiving Tube Manual RC-19, 1959, average characteristics): Va=250 V, Vg=-3 V -> Ia=1.0 mA, gm=1200 umho, mu=70
* Method + limitations: models/METHODOLOGY.md
* Generated by pipeline/fit_models.py — edit anchors there, not here.
* Heater not modeled (rated heater assumed). No grid-current model (v0).
* Diode units (plate No.1, plate No.2) are unused in this corpus
* and are not modeled; only the triode amplifier section is fitted.
* Node order: P G K (triode plate=pin7, grid=pin1, cathode=pin2)
.subckt 6AT6 P G K
* fitted: MU=70 EX=1.5 KG1=792.163 KP=338.766 KVB=300
Bp P K I=pow(uramp((V(P,K)/338.766)*ln(1+exp(338.766*(1/70+V(G,K)/sqrt(300+V(P,K)*V(P,K)))))),1.5)/792.163
Cgk G K 2.2p
Cgp G P 2p
Cpk P K 0.8p
.ends 6AT6
