* 6V6GT beam power tube — Circuit Codex tube model
* License: CC0 1.0 Universal (public domain dedication)
*   https://creativecommons.org/publicdomain/zero/1.0/
* Equations: Koren model form — N. Koren, 'Improved vacuum-tube models for
*   SPICE simulations', Glass Audio 8(5), 1996 (published methodology; all
*   parameters fitted by Circuit Codex, none copied from other collections).
* Anchor (RCA Receiving Tube Manual RC-19, 1959, average characteristics): Va=250 V, Vg2=250 V, Vg1=-12.5 V -> Ia=45 mA, Ig2=4.5 mA, gm=4100 umho
* Method + limitations: models/METHODOLOGY.md
* Generated by pipeline/fit_models.py — edit anchors there, not here.
* Heater not modeled (rated heater assumed). No grid-current model (v0).
* mu is grid-No.1-to-grid-No.2 amplification factor (9.6, RC-19).
* Node order: P G2 G1 K
.subckt 6V6GT P G2 G1 K
* fitted: MU=9.6 EX=1.5 KG1=1770.33 KG2=11073.8 KP=36.3127 KVB=30
Bp P K I=pow(uramp((V(G2,K)/36.3127)*ln(1+exp(36.3127*(1/9.6+V(G1,K)/V(G2,K))))),1.5)/1770.33*atan(V(P,K)/30)
Bg2 G2 K I=pow(uramp(V(G2,K)/9.6+V(G1,K)),1.5)/11073.8
Cg1k G1 K 9p
Cg1p G1 P 0.7p
Cpk P K 7.5p
.ends 6V6GT
