* EL34 A.F. output pentode — Circuit Codex tube model
* License: CC0 1.0 Universal (public domain dedication)
*   https://creativecommons.org/publicdomain/zero/1.0/
* Equations: Koren model form — N. Koren, 'Improved vacuum-tube models for
*   SPICE simulations', Glass Audio 8(5), 1996 (published methodology; all
*   parameters fitted by Circuit Codex, none copied from other collections).
* Anchor (Mullard/Philips EL34 data sheet, January 1969; https://frank.pocnet.net/sheets/010/e/EL34.pdf): Va=250 V, Vg2=250 V, Vg1=-13.5 V -> Ia=100 mA, Ig2=14.9 mA, gm=12500 umho
* Method + limitations: models/METHODOLOGY.md
* Generated by pipeline/fit_models.py — edit anchors there, not here.
* Heater not modeled (rated heater assumed). No grid-current model (v0).
* mu is grid-No.1-to-grid-No.2 amplification factor (11), the
* tabulated amplification factor on the same Class-A data row.
* Ig2 is tabulated at the plate/gm point, so KG2 anchors there.
* Capacitances from the sheet: Cg1(in)=15.2 pF, Ca-g1=1.1 pF, Ca(out)=8.4 pF.
* True pentode (suppressor g3 to pin 1, tied to cathode in use).
* Node order: P G2 G1 K
.subckt EL34 P G2 G1 K
* fitted: MU=11 EX=1.5 KG1=468.768 KG2=1881.15 KP=45.9816 KVB=30
Bp P K I=pow(uramp((V(G2,K)/45.9816)*ln(1+exp(45.9816*(1/11+V(G1,K)/V(G2,K))))),1.5)/468.768*atan(V(P,K)/30)
Bg2 G2 K I=pow(uramp(V(G2,K)/11+V(G1,K)),1.5)/1881.15
Cg1k G1 K 15.2p
Cg1p G1 P 1.1p
Cpk P K 8.4p
.ends EL34
