* KT66 beam power tetrode — Circuit Codex tube model
* License: CC0 1.0 Universal (public domain dedication)
*   https://creativecommons.org/publicdomain/zero/1.0/
* Equations: Koren model form — N. Koren, 'Improved vacuum-tube models for
*   SPICE simulations', Glass Audio 8(5), 1996 (published methodology; all
*   parameters fitted by Circuit Codex, none copied from other collections).
* Anchor (GEC / M-O Valve Co. KT66 data sheet, Issue 4, April 1963; https://frank.pocnet.net/sheets/084/k/KT66_GEC.pdf): Va=250 V, Vg2=250 V, Vg1=-15 V -> Ia=85 mA, gm=7000 umho (gm test point)
* Method + limitations: models/METHODOLOGY.md
* Generated by pipeline/fit_models.py — edit anchors there, not here.
* Heater not modeled (rated heater assumed). No grid-current model (v0).
* mu is grid-No.1-to-grid-No.2 amplification factor (9.5), taken from
* the triode-connection gm.ra (7.3 mA/V x 1.3 kOhm) on the same sheet.
* KG2 anchored on the Class AB1 push-pull tetrode quiescent point
* Vg2=300 V, Vg1=-27 V -> Ig2=2.5 mA (no Ig2 tabulated at the gm point).
* Capacitances from the sheet: Cg1(in)=14.5 pF, Ca-g1=1.1 pF, Ca(out)=10 pF.
* Node order: P G2 G1 K
.subckt KT66 P G2 G1 K
* fitted: MU=9.5 EX=1.5 KG1=886.093 KG2=3919.3 KP=25.9337 KVB=30
Bp P K I=pow(uramp((V(G2,K)/25.9337)*ln(1+exp(25.9337*(1/9.5+V(G1,K)/V(G2,K))))),1.5)/886.093*atan(V(P,K)/30)
Bg2 G2 K I=pow(uramp(V(G2,K)/9.5+V(G1,K)),1.5)/3919.3
Cg1k G1 K 14.5p
Cg1p G1 P 1.1p
Cpk P K 10p
.ends KT66
